121871
  -OEChem-06052308513D

 62 61  0     0  0  0  0  0  0999 V2000
   -8.8279    1.8519    0.8743 O   0  0  0  0  0  0  0  0  0  0  0  0
    7.5992    1.5256   -1.9226 O   0  0  0  0  0  0  0  0  0  0  0  0
   -6.5915    2.2005    1.0456 O   0  0  0  0  0  0  0  0  0  0  0  0
    8.6948    2.1763   -0.0363 O   0  0  0  0  0  0  0  0  0  0  0  0
   -7.1541   -0.6563   -0.5031 C   0  0  0  0  0  0  0  0  0  0  0  0
    6.9972   -0.6186    0.4981 C   0  0  0  0  0  0  0  0  0  0  0  0
   -5.8244   -0.9067    0.2629 C   0  0  0  0  0  0  0  0  0  0  0  0
    5.6588   -0.3196   -0.2356 C   0  0  0  0  0  0  0  0  0  0  0  0
   -4.5467   -0.4460   -0.4501 C   0  0  0  0  0  0  0  0  0  0  0  0
    4.3795   -0.7013    0.5227 C   0  0  0  0  0  0  0  0  0  0  0  0
   -3.3001   -0.8226    0.3584 C   0  0  0  0  0  0  0  0  0  0  0  0
    3.1322   -0.2994   -0.2714 C   0  0  0  0  0  0  0  0  0  0  0  0
   -2.0246   -0.3338   -0.3318 C   0  0  0  0  0  0  0  0  0  0  0  0
    1.8190   -0.6881    0.4152 C   0  0  0  0  0  0  0  0  0  0  0  0
   -0.7416   -0.7080    0.4177 C   0  0  0  0  0  0  0  0  0  0  0  0
    0.5330   -0.2374   -0.2868 C   0  0  0  0  0  0  0  0  0  0  0  0
   -7.4223    0.8424   -0.7774 C   0  0  0  0  0  0  0  0  0  0  0  0
    8.1914   -0.1718   -0.3852 C   0  0  0  0  0  0  0  0  0  0  0  0
   -8.3056   -1.2563    0.3315 C   0  0  0  0  0  0  0  0  0  0  0  0
   -7.1320   -1.3914   -1.8598 C   0  0  0  0  0  0  0  0  0  0  0  0
    7.1544   -2.1340    0.7428 C   0  0  0  0  0  0  0  0  0  0  0  0
    7.0480    0.0976    1.8607 C   0  0  0  0  0  0  0  0  0  0  0  0
   -7.5446    1.6996    0.4629 C   0  0  0  0  0  0  0  0  0  0  0  0
    8.2077    1.2973   -0.7327 C   0  0  0  0  0  0  0  0  0  0  0  0
   -5.8719   -0.4282    1.2494 H   0  0  0  0  0  0  0  0  0  0  0  0
   -5.7345   -1.9840    0.4607 H   0  0  0  0  0  0  0  0  0  0  0  0
    5.6601   -0.8306   -1.2076 H   0  0  0  0  0  0  0  0  0  0  0  0
    5.5979    0.7544   -0.4501 H   0  0  0  0  0  0  0  0  0  0  0  0
   -4.5688    0.6396   -0.5939 H   0  0  0  0  0  0  0  0  0  0  0  0
   -4.4727   -0.9073   -1.4402 H   0  0  0  0  0  0  0  0  0  0  0  0
    4.3482   -0.2040    1.4977 H   0  0  0  0  0  0  0  0  0  0  0  0
    4.3550   -1.7814    0.7020 H   0  0  0  0  0  0  0  0  0  0  0  0
   -3.3625   -0.3839    1.3614 H   0  0  0  0  0  0  0  0  0  0  0  0
   -3.2556   -1.9114    0.4821 H   0  0  0  0  0  0  0  0  0  0  0  0
    3.1638   -0.7656   -1.2639 H   0  0  0  0  0  0  0  0  0  0  0  0
    3.1407    0.7859   -0.4312 H   0  0  0  0  0  0  0  0  0  0  0  0
   -2.0679    0.7568   -0.4430 H   0  0  0  0  0  0  0  0  0  0  0  0
   -1.9799   -0.7533   -1.3447 H   0  0  0  0  0  0  0  0  0  0  0  0
    1.8192   -0.2760    1.4324 H   0  0  0  0  0  0  0  0  0  0  0  0
    1.7962   -1.7798    0.5257 H   0  0  0  0  0  0  0  0  0  0  0  0
   -0.7050   -1.7980    0.5362 H   0  0  0  0  0  0  0  0  0  0  0  0
   -0.7743   -0.2809    1.4275 H   0  0  0  0  0  0  0  0  0  0  0  0
    0.5259    0.8569   -0.3591 H   0  0  0  0  0  0  0  0  0  0  0  0
    0.5391   -0.6223   -1.3140 H   0  0  0  0  0  0  0  0  0  0  0  0
   -8.3466    0.9639   -1.3585 H   0  0  0  0  0  0  0  0  0  0  0  0
   -6.6359    1.2814   -1.4032 H   0  0  0  0  0  0  0  0  0  0  0  0
    9.1458   -0.3926    0.1111 H   0  0  0  0  0  0  0  0  0  0  0  0
    8.2134   -0.7457   -1.3213 H   0  0  0  0  0  0  0  0  0  0  0  0
   -8.3347   -0.8353    1.3422 H   0  0  0  0  0  0  0  0  0  0  0  0
   -8.1930   -2.3418    0.4351 H   0  0  0  0  0  0  0  0  0  0  0  0
   -9.2771   -1.0686   -0.1396 H   0  0  0  0  0  0  0  0  0  0  0  0
   -6.8708   -2.4482   -1.7346 H   0  0  0  0  0  0  0  0  0  0  0  0
   -8.1140   -1.3492   -2.3455 H   0  0  0  0  0  0  0  0  0  0  0  0
   -6.4127   -0.9448   -2.5539 H   0  0  0  0  0  0  0  0  0  0  0  0
    7.0728   -2.6955   -0.1946 H   0  0  0  0  0  0  0  0  0  0  0  0
    6.3930   -2.5166    1.4303 H   0  0  0  0  0  0  0  0  0  0  0  0
    8.1313   -2.3627    1.1844 H   0  0  0  0  0  0  0  0  0  0  0  0
    6.8151    1.1632    1.7631 H   0  0  0  0  0  0  0  0  0  0  0  0
    8.0435    0.0128    2.3116 H   0  0  0  0  0  0  0  0  0  0  0  0
    6.3369   -0.3334    2.5734 H   0  0  0  0  0  0  0  0  0  0  0  0
   -8.8902    2.4047    1.6823 H   0  0  0  0  0  0  0  0  0  0  0  0
    7.5977    2.4783   -2.1564 H   0  0  0  0  0  0  0  0  0  0  0  0
  1 23  1  0  0  0  0
  1 61  1  0  0  0  0
  2 24  1  0  0  0  0
  2 62  1  0  0  0  0
  3 23  2  0  0  0  0
  4 24  2  0  0  0  0
  5  7  1  0  0  0  0
  5 17  1  0  0  0  0
  5 19  1  0  0  0  0
  5 20  1  0  0  0  0
  6  8  1  0  0  0  0
  6 18  1  0  0  0  0
  6 21  1  0  0  0  0
  6 22  1  0  0  0  0
  7  9  1  0  0  0  0
  7 25  1  0  0  0  0
  7 26  1  0  0  0  0
  8 10  1  0  0  0  0
  8 27  1  0  0  0  0
  8 28  1  0  0  0  0
  9 11  1  0  0  0  0
  9 29  1  0  0  0  0
  9 30  1  0  0  0  0
 10 12  1  0  0  0  0
 10 31  1  0  0  0  0
 10 32  1  0  0  0  0
 11 13  1  0  0  0  0
 11 33  1  0  0  0  0
 11 34  1  0  0  0  0
 12 14  1  0  0  0  0
 12 35  1  0  0  0  0
 12 36  1  0  0  0  0
 13 15  1  0  0  0  0
 13 37  1  0  0  0  0
 13 38  1  0  0  0  0
 14 16  1  0  0  0  0
 14 39  1  0  0  0  0
 14 40  1  0  0  0  0
 15 16  1  0  0  0  0
 15 41  1  0  0  0  0
 15 42  1  0  0  0  0
 16 43  1  0  0  0  0
 16 44  1  0  0  0  0
 17 23  1  0  0  0  0
 17 45  1  0  0  0  0
 17 46  1  0  0  0  0
 18 24  1  0  0  0  0
 18 47  1  0  0  0  0
 18 48  1  0  0  0  0
 19 49  1  0  0  0  0
 19 50  1  0  0  0  0
 19 51  1  0  0  0  0
 20 52  1  0  0  0  0
 20 53  1  0  0  0  0
 20 54  1  0  0  0  0
 21 55  1  0  0  0  0
 21 56  1  0  0  0  0
 21 57  1  0  0  0  0
 22 58  1  0  0  0  0
 22 59  1  0  0  0  0
 22 60  1  0  0  0  0
M  END
> <PUBCHEM_COMPOUND_CID>
121871

> <PUBCHEM_CONFORMER_RMSD>
1.4

> <PUBCHEM_CONFORMER_DIVERSEORDER>
1
30
5
62
19
42
27
50
10
52
49
24
38
60
43
16
25
6
46
56
63
20
32
13
58
57
4
45
40
7
36
65
12
41
15
35
39
22
67
47
8
66
34
64
26
54
44
31
55
37
23
17
11
9
28
68
3
21
53
61
59
51
33
48
29
14
18
2

> <PUBCHEM_MMFF94_PARTIAL_CHARGES>
10
1 -0.65
17 0.06
18 0.06
2 -0.65
23 0.66
24 0.66
3 -0.57
4 -0.57
61 0.5
62 0.5

> <PUBCHEM_EFFECTIVE_ROTOR_COUNT>
15

> <PUBCHEM_PHARMACOPHORE_FEATURES>
8
1 1 acceptor
1 2 acceptor
1 3 acceptor
1 4 acceptor
3 1 3 23 anion
3 2 4 24 anion
3 5 19 20 hydrophobe
3 6 21 22 hydrophobe

> <PUBCHEM_HEAVY_ATOM_COUNT>
24

> <PUBCHEM_ATOM_DEF_STEREO_COUNT>
0

> <PUBCHEM_ATOM_UDEF_STEREO_COUNT>
0

> <PUBCHEM_BOND_DEF_STEREO_COUNT>
0

> <PUBCHEM_BOND_UDEF_STEREO_COUNT>
0

> <PUBCHEM_ISOTOPIC_ATOM_COUNT>
0

> <PUBCHEM_COMPONENT_COUNT>
1

> <PUBCHEM_CACTVS_TAUTO_COUNT>
1

> <PUBCHEM_CONFORMER_ID>
0001DC0F00000001

> <PUBCHEM_MMFF94_ENERGY>
36.6185

> <PUBCHEM_FEATURE_SELFOVERLAP>
40.712

> <PUBCHEM_SHAPE_FINGERPRINT>
10666366 153 16845857884537585544
11181472 205 18200882764396989696
11315181 36 18333168376322504435
12082328 90 18411417302861411295
12089408 11 18408039606639213563
12091667 2 18272930527967303567
13530399 1 18408890637145508388
13885169 127 18201435853316664651
14251764 18 18409446990043798286
14251764 46 18260828206678146507
14428016 248 18334299781385858316
14617042 71 17749958881783155340
15461852 350 17775283889591011295
15510794 2 13542468692001510791
16120349 18 17822008757379093484
1754908 1 13045945715685852964
195137 175 18409171008435929673
20165401 70 10159436292919694196
22224240 67 16732699458910374850
5758199 1 18113899355498866155
59567204 34 18201719502064370385
59682541 35 15357698591197839331
67123 10 18187645829583121959

> <PUBCHEM_SHAPE_MULTIPOLES>
470.43
39.28
1.85
1.25
4.46
0.8
-0.18
10.92
-1.19
-0.5
0.15
0.44
0.17
-3.39

> <PUBCHEM_SHAPE_SELFOVERLAP>
889.684

> <PUBCHEM_SHAPE_VOLUME>
291.2

> <PUBCHEM_COORDINATE_TYPE>
2
5
10

$$$$
