121596244
  -OEChem-06052308523D

 57 60  0     1  0  0  0  0  0999 V2000
    0.3521   -2.5573   -1.5083 O   0  0  0  0  0  0  0  0  0  0  0  0
    2.5443   -0.5622    2.2518 O   0  0  0  0  0  0  0  0  0  0  0  0
   -2.2589   -2.7601   -1.4734 O   0  0  0  0  0  0  0  0  0  0  0  0
    0.1182   -0.3430    3.3239 O   0  0  0  0  0  0  0  0  0  0  0  0
    1.4395    2.0680    1.6717 O   0  5  0  0  0  0  0  0  0  0  0  0
    3.1033    0.5002   -2.4736 O   0  0  0  0  0  0  0  0  0  0  0  0
   -1.9490    1.5633    2.0752 O   0  0  0  0  0  0  0  0  0  0  0  0
   -3.6315    2.7614    0.6343 O   0  0  0  0  0  0  0  0  0  0  0  0
    3.5252    3.2250   -1.2604 O   0  0  0  0  0  0  0  0  0  0  0  0
    4.0203   -1.3466   -0.0756 N   0  3  0  0  0  0  0  0  0  0  0  0
    1.2487    3.4938   -0.9830 N   0  0  0  0  0  0  0  0  0  0  0  0
    1.5413   -1.3295    0.1924 C   0  0  2  0  0  0  0  0  0  0  0  0
    0.2042   -1.4504   -0.6191 C   0  0  2  0  0  0  0  0  0  0  0  0
   -0.9919   -1.6858    0.3334 C   0  0  2  0  0  0  0  0  0  0  0  0
    1.5143   -0.2375    1.3046 C   0  0  1  0  0  0  0  0  0  0  0  0
    2.7217   -1.1126   -0.7654 C   0  0  1  0  0  0  0  0  0  0  0  0
   -2.3966   -1.9715   -0.2917 C   0  0  1  0  0  0  0  0  0  0  0  0
   -1.0257   -0.5087    1.2635 C   0  0  0  0  0  0  0  0  0  0  0  0
    0.1933   -0.3761    2.0993 C   0  0  0  0  0  0  0  0  0  0  0  0
    1.7545    1.2121    0.7910 C   0  0  0  0  0  0  0  0  0  0  0  0
    2.7023    0.2820   -1.3303 C   0  0  0  0  0  0  0  0  0  0  0  0
   -3.1700   -0.6950   -0.6083 C   0  0  0  0  0  0  0  0  0  0  0  0
   -1.9510    0.4651    1.2427 C   0  0  0  0  0  0  0  0  0  0  0  0
    2.2578    1.4097   -0.4546 C   0  0  0  0  0  0  0  0  0  0  0  0
   -3.2551   -2.7958    0.6935 C   0  0  0  0  0  0  0  0  0  0  0  0
   -2.9826    0.4575    0.1865 C   0  0  0  0  0  0  0  0  0  0  0  0
    5.1739   -0.6841   -0.7828 C   0  0  0  0  0  0  0  0  0  0  0  0
    4.2875   -2.8100    0.1636 C   0  0  0  0  0  0  0  0  0  0  0  0
   -4.1397   -0.6755   -1.6279 C   0  0  0  0  0  0  0  0  0  0  0  0
   -3.7635    1.5978   -0.0692 C   0  0  0  0  0  0  0  0  0  0  0  0
    2.4268    2.7974   -0.9418 C   0  0  0  0  0  0  0  0  0  0  0  0
   -4.9004    0.4667   -1.8706 C   0  0  0  0  0  0  0  0  0  0  0  0
   -4.7133    1.6017   -1.0913 C   0  0  0  0  0  0  0  0  0  0  0  0
    1.6724   -2.3019    0.6845 H   0  0  0  0  0  0  0  0  0  0  0  0
    0.0331   -0.5591   -1.2337 H   0  0  0  0  0  0  0  0  0  0  0  0
   -0.7394   -2.5864    0.9143 H   0  0  0  0  0  0  0  0  0  0  0  0
    2.6826   -1.8124   -1.6092 H   0  0  0  0  0  0  0  0  0  0  0  0
    3.9797   -0.9052    0.8522 H   0  0  0  0  0  0  0  0  0  0  0  0
   -2.7708   -3.7517    0.9254 H   0  0  0  0  0  0  0  0  0  0  0  0
   -4.2276   -3.0485    0.2535 H   0  0  0  0  0  0  0  0  0  0  0  0
   -3.4372   -2.2660    1.6347 H   0  0  0  0  0  0  0  0  0  0  0  0
    0.4860   -3.3573   -0.9721 H   0  0  0  0  0  0  0  0  0  0  0  0
    2.5911    0.1578    2.9042 H   0  0  0  0  0  0  0  0  0  0  0  0
    6.0954   -0.9932   -0.2798 H   0  0  0  0  0  0  0  0  0  0  0  0
    5.0902    0.4009   -0.6847 H   0  0  0  0  0  0  0  0  0  0  0  0
    5.1926   -1.0154   -1.8247 H   0  0  0  0  0  0  0  0  0  0  0  0
    3.5194   -3.2175    0.8220 H   0  0  0  0  0  0  0  0  0  0  0  0
    5.2581   -2.8993    0.6598 H   0  0  0  0  0  0  0  0  0  0  0  0
    4.3009   -3.3260   -0.8002 H   0  0  0  0  0  0  0  0  0  0  0  0
   -1.7910   -3.5783   -1.2340 H   0  0  0  0  0  0  0  0  0  0  0  0
   -4.3238   -1.5576   -2.2361 H   0  0  0  0  0  0  0  0  0  0  0  0
   -1.2274    1.4698    2.7190 H   0  0  0  0  0  0  0  0  0  0  0  0
   -5.6438    0.4660   -2.6623 H   0  0  0  0  0  0  0  0  0  0  0  0
   -5.3155    2.4836   -1.2939 H   0  0  0  0  0  0  0  0  0  0  0  0
    0.3569    3.0878   -0.7164 H   0  0  0  0  0  0  0  0  0  0  0  0
    1.2270    4.4583   -1.2975 H   0  0  0  0  0  0  0  0  0  0  0  0
   -4.2591    3.4234    0.2977 H   0  0  0  0  0  0  0  0  0  0  0  0
  1 13  1  0  0  0  0
  1 42  1  0  0  0  0
  2 15  1  0  0  0  0
  2 43  1  0  0  0  0
  3 17  1  0  0  0  0
  3 50  1  0  0  0  0
  4 19  2  0  0  0  0
  5 20  1  0  0  0  0
  6 21  2  0  0  0  0
  7 23  1  0  0  0  0
  7 52  1  0  0  0  0
  8 30  1  0  0  0  0
  8 57  1  0  0  0  0
  9 31  2  0  0  0  0
 10 16  1  0  0  0  0
 10 27  1  0  0  0  0
 10 28  1  0  0  0  0
 10 38  1  0  0  0  0
 11 31  1  0  0  0  0
 11 55  1  0  0  0  0
 11 56  1  0  0  0  0
 12 13  1  0  0  0  0
 12 15  1  0  0  0  0
 12 16  1  0  0  0  0
 12 34  1  0  0  0  0
 13 14  1  0  0  0  0
 13 35  1  0  0  0  0
 14 17  1  0  0  0  0
 14 18  1  0  0  0  0
 14 36  1  0  0  0  0
 15 19  1  0  0  0  0
 15 20  1  0  0  0  0
 16 21  1  0  0  0  0
 16 37  1  0  0  0  0
 17 22  1  0  0  0  0
 17 25  1  0  0  0  0
 18 19  1  0  0  0  0
 18 23  2  0  0  0  0
 20 24  2  0  0  0  0
 21 24  1  0  0  0  0
 22 26  2  0  0  0  0
 22 29  1  0  0  0  0
 23 26  1  0  0  0  0
 24 31  1  0  0  0  0
 25 39  1  0  0  0  0
 25 40  1  0  0  0  0
 25 41  1  0  0  0  0
 26 30  1  0  0  0  0
 27 44  1  0  0  0  0
 27 45  1  0  0  0  0
 27 46  1  0  0  0  0
 28 47  1  0  0  0  0
 28 48  1  0  0  0  0
 28 49  1  0  0  0  0
 29 32  2  0  0  0  0
 29 51  1  0  0  0  0
 30 33  2  0  0  0  0
 32 33  1  0  0  0  0
 32 53  1  0  0  0  0
 33 54  1  0  0  0  0
M  CHG  2   5  -1  10   1
M  END
> <PUBCHEM_COMPOUND_CID>
121596244

> <PUBCHEM_CONFORMER_RMSD>
0.8

> <PUBCHEM_CONFORMER_DIVERSEORDER>
1
4
5
2
3

> <PUBCHEM_MMFF94_PARTIAL_CHARGES>
42
1 -0.68
10 -0.96
11 -0.8
13 0.28
14 0.14
15 0.48
16 0.56
17 0.42
18 -0.12
19 0.49
2 -0.68
20 -0.29
21 0.49
22 -0.14
23 0.05
24 0.03
26 0.03
27 0.5
28 0.5
29 -0.15
3 -0.68
30 0.08
31 0.62
32 -0.15
33 -0.15
38 0.45
4 -0.57
42 0.4
43 0.4
5 -0.85
50 0.4
51 0.15
52 0.45
53 0.15
54 0.15
55 0.37
56 0.37
57 0.45
6 -0.57
7 -0.53
8 -0.53
9 -0.57

> <PUBCHEM_EFFECTIVE_ROTOR_COUNT>
2.6

> <PUBCHEM_PHARMACOPHORE_FEATURES>
18
1 1 acceptor
1 1 donor
1 10 cation
1 10 donor
1 11 donor
1 2 acceptor
1 2 donor
1 3 acceptor
1 3 donor
1 4 acceptor
1 6 acceptor
1 7 donor
1 8 donor
1 9 acceptor
6 12 13 14 15 18 19 rings
6 12 15 16 20 21 24 rings
6 14 17 18 22 23 26 rings
6 22 26 29 30 32 33 rings

> <PUBCHEM_HEAVY_ATOM_COUNT>
33

> <PUBCHEM_ATOM_DEF_STEREO_COUNT>
6

> <PUBCHEM_ATOM_UDEF_STEREO_COUNT>
0

> <PUBCHEM_BOND_DEF_STEREO_COUNT>
0

> <PUBCHEM_BOND_UDEF_STEREO_COUNT>
0

> <PUBCHEM_ISOTOPIC_ATOM_COUNT>
0

> <PUBCHEM_COMPONENT_COUNT>
1

> <PUBCHEM_CACTVS_TAUTO_COUNT>
42

> <PUBCHEM_CONFORMER_ID>
073F695400000001

> <PUBCHEM_MMFF94_ENERGY>
125.4771

> <PUBCHEM_FEATURE_SELFOVERLAP>
91.53

> <PUBCHEM_SHAPE_FINGERPRINT>
10498660 4 18264768951205269445
10863032 1 18339083790748099790
10930396 42 18049688903931211266
11578080 2 18059849602045950416
11640471 11 17750495412711489611
12107698 1 18260552268267688867
12160290 23 15839058111664441235
12166972 35 18343013363638180087
12363563 72 15913327987643100235
12553582 1 15912504513553096559
13004483 165 18046900482065597722
13134695 92 18188215291133803356
13224815 77 18263364849012714995
13383661 66 14676226391715145141
13583140 156 17603588500367621019
14341114 328 8285902601764780286
15238133 3 17169814596877828977
17349148 13 18130221554062978475
17980427 23 17759759948836913400
18335252 114 18044924681150264989
18981168 100 16588311643178857256
20511986 3 18340754963261990834
20775438 99 16551098758738031263
21033648 29 16298391261942225773
21781051 124 18411411827057904511
22907989 373 18129674109500314057
23419403 2 17199913741168893080
23559900 14 18272076215009658355
238 59 18269843179776292108
340366 18 18410291389336183863
57527295 17 17749400282193578850
5895379 119 18341045237877578680
7399639 24 17539433315051551962
9981440 41 17757554432044522512

> <PUBCHEM_SHAPE_MULTIPOLES>
616.34
8.88
3.44
2.22
1.68
1.29
-0.98
0.61
4.32
-0.87
0.85
-0.04
0.12
-0.76

> <PUBCHEM_SHAPE_SELFOVERLAP>
1362.038

> <PUBCHEM_SHAPE_VOLUME>
324

> <PUBCHEM_COORDINATE_TYPE>
2
5
10

$$$$
